Version 4
SHEET 1 880 680
SYMBOL voltage 304 192 R0
SYMATTR InstName V1
SYMBOL voltage 64 144 R0
SYMATTR InstName V2
SYMBOL voltage 128 -144 R0
SYMATTR InstName V3
SYMBOL voltage -128 64 R0
SYMATTR InstName V4
SYMBOL voltage -112 -112 R0
SYMATTR InstName V5
